%nprocshared=8
%mem=10GB
%chk=biphenyl.chk
#p nmr=giao rb3lyp/6-31+g(d)

Title Card Required

0 1
 H                  1.90900000   -0.93500000    0.91600000
 C                  1.07900000   -0.51700000    1.45200000
 C                 -1.07900000    0.51700000    2.83500000
 C                  0.00000000    0.00000000    0.74500000
 C                  1.07900000   -0.51700000    2.83500000
 C                  0.00000000    0.00000000    3.53100000
 C                 -1.07900000    0.51700000    1.45200000
 H                  1.91500000   -0.92500000    3.36700000
 H                  0.00000000    0.00000000    4.60300000
 H                 -1.90900000    0.93500000    0.91600000
 H                 -1.91500000    0.92500000    3.36700000
 C                  0.00000000    0.00000000   -0.74500000
 C                  0.00000000    0.00000000   -3.53100000
 C                  1.07900000    0.51700000   -1.45200000
 C                 -1.07900000   -0.51700000   -1.45200000
 C                 -1.07900000   -0.51700000   -2.83500000
 C                  1.07900000    0.51700000   -2.83500000
 H                  1.90900000    0.93500000   -0.91600000
 H                 -1.90900000   -0.93500000   -0.91600000
 H                 -1.91500000   -0.92500000   -3.36700000
 H                  1.91500000    0.92500000   -3.36700000
 H                  0.00000000    0.00000000   -4.60300000

